[TITLE]
;;Project Title/Notes
Orange County Public Works Drainage Model
Newport Bay Hydrology and Water Quality
Authors: Andrea Zimmer, Constantine Karos, Zach Eichenwald
Developed, calibrated, and validated by CDM Smith
Coordinate system: NAD83 CA State Plane VI feet
File name: Newport_Baseline_WithLID_20190312.inp
Last updated: March 12 2019
Closed conduit geometry from OCPW GIS database. Irregular pipe sizes may need field confirmation. Open channel conduit geometry estimated from DEM. Inverts infered from DEM and adjusted to eliminate adverse and steep slopes and to match NTS as-builts. NTS and flood control basin representation based on available as-built drawings.
All NTS sites and reservoirs contain fraction removal of key contaminants based on wetland basin. Boundary contaminant inflows and dry weather flows are estimated based on OCPW Dry Weather Flow Monitoring program data.
Add LID and LID treatment to underdrain.

[OPTIONS]
;;Option             Value
FLOW_UNITS           CFS
INFILTRATION         GREEN_AMPT
FLOW_ROUTING         DYNWAVE
LINK_OFFSETS         DEPTH
MIN_SLOPE            0
ALLOW_PONDING        YES
SKIP_STEADY_STATE    NO

START_DATE           01/01/2010
START_TIME           00:00:00
REPORT_START_DATE    01/01/2010
REPORT_START_TIME    00:00:00
END_DATE             01/2/2010
END_TIME             00:00:00
SWEEP_START          01/01
SWEEP_END            12/31
DRY_DAYS             0
REPORT_STEP          01:00:00
WET_STEP             00:05:00
DRY_STEP             01:00:00
ROUTING_STEP         0:00:05 
RULE_STEP            00:00:00

INERTIAL_DAMPING     FULL
NORMAL_FLOW_LIMITED  BOTH
FORCE_MAIN_EQUATION  H-W
VARIABLE_STEP        0.75
LENGTHENING_STEP     0
MIN_SURFAREA         12.566
MAX_TRIALS           8
HEAD_TOLERANCE       0.005
SYS_FLOW_TOL         5
LAT_FLOW_TOL         5
MINIMUM_STEP         0.5
THREADS              7

[EVAPORATION]
;;Data Source    Parameters
;;-------------- ----------------
TIMESERIES       Evaporation
DRY_ONLY         NO

[RAINGAGES]
;;Name           Format    Interval SCF      Source    
;;-------------- --------- ------ ------ ----------
CIMIS_Irvine     VOLUME    1:00     1.0      TIMESERIES SantaAna_Continuous
Modjeska_Canyon  VOLUME    1:00     1.0      TIMESERIES Modjeska_Continuous
SantaAna_JohnWayne VOLUME    1:00     1.0      TIMESERIES SantaAna_Continuous
Villa_Park_Dam   VOLUME    1:00     1.0      TIMESERIES VillaPark_Continuous

[SUBCATCHMENTS]
;;Name           Rain Gage        Outlet           Area     %Imperv  Width    %Slope   CurbLen  SnowPack        
;;-------------- ---------------- ---------------- -------- -------- -------- -------- -------- ----------------
;ZTE route to Middle Eastfoot
basin2           Modjeska_Canyon  Middle_Eastfoot  145.307541 5.802    2974.844 0.5      0                        
c001             SantaAna_JohnWayne 133              127.149773 54.039   3661.168 0.525    0                        
c002             SantaAna_JohnWayne 111              225.947679 78.361   5169.336 0.51     0                        
c003             SantaAna_JohnWayne 155              251.880436 64.647   5517.552 0.678    0                        
c004             SantaAna_JohnWayne 141              346.707257 59.823   6683.56  0.561    0                        
c005             SantaAna_JohnWayne 115              236.722249 57.059   5315.856 0.713    0                        
c006             SantaAna_JohnWayne 224              158.693727 62.513   4181.824 0.611    0                        
c007             SantaAna_JohnWayne 96               141.956833 56.139   3911.328 0.367    0                        
c008             SantaAna_JohnWayne OF14             211.586733 51.559   7454.428 1.004    0                        
c009             SantaAna_JohnWayne OF12             203.092925 58.56    7273.411 1.017    0                        
c010             SantaAna_JohnWayne OF9              108.992528 76.41    5006.789 1.432    0                        
c011             SantaAna_JohnWayne OF9              21.023859 75.674   1865.3   2.23     0                        
c012             SantaAna_JohnWayne OF11             111.212787 48.805   5067.737 2.191    0                        
c013             SantaAna_JohnWayne 8                14.894022 68.015   1516.8   2.651    0                        
c014             SantaAna_JohnWayne OF10             31.806727 83.021   2391.292 2.85     0                        
c015             SantaAna_JohnWayne OF13             165.780325 81.854   6439.335 1.265    0                        
c016             SantaAna_JohnWayne 8                239.59374 71.333   8031.683 5.4      0                        
c017             SantaAna_JohnWayne 28               258.633269 77.212   8408.759 2.132    0                        
c018             SantaAna_JohnWayne 31               240.015161 72.091   8040.156 1.325    0                        
c019             SantaAna_JohnWayne 23               143.071688 89.562   5894.588 1.667    0                        
c020             SantaAna_JohnWayne 74               188.527107 57.292   6955.775 0.28     0                        
c021             SantaAna_JohnWayne 109              125.848061 58.109   5457.945 0.81     0                        
c023             SantaAna_JohnWayne 152              311.355097 46.955   9398.853 1.588    0                        
c024             SantaAna_JohnWayne 247              186.800169 53.968   6917.475 7.236    0                        
c025             SantaAna_JohnWayne 13               232.06825 59.181   7879.355 7.085    0                        
c026             SantaAna_JohnWayne 58               219.070445 49.845   7611.522 5.12     0                        
c027             SantaAna_JohnWayne 32               172.157253 50.674   6586.83  0.674    0                        
c028             SantaAna_JohnWayne 76               336.989279 51.095   21682.712 2.036    0                        
c029             SantaAna_JohnWayne 72               276.782817 62.793   19267.591 0.427    0                        
c030             SantaAna_JohnWayne J19              189.636973 36.122   6980.316 6.654    0                        
c031             SantaAna_JohnWayne OF5              216.4993 22.585   7557.796 7.174    0                        
c032             SantaAna_JohnWayne OF4              168.438269 33.624   6501.083 9.626    0                        
c033             SantaAna_JohnWayne 48               217.575228 74.268   5053.536 0.512    0                        
c034             SantaAna_JohnWayne 227              206.771753 62.528   4901.456 2.165    0                        
c035             SantaAna_JohnWayne 99               312.052719 47.503   6274.32  0.96     0                        
c036             SantaAna_JohnWayne 68               152.967264 79.296   4090.624 0.788    0                        
c037             SantaAna_JohnWayne 215              310.679017 68.696   6257.736 1.64     0                        
c039             SantaAna_JohnWayne 206              252.682032 61.465   5528.08  0.637    0                        
c040             SantaAna_JohnWayne 188              269.218197 55.305   5742.384 0.706    0                        
c041             SantaAna_JohnWayne 197              195.336907 57.262   4736.968 0.76     0                        
c042             SantaAna_JohnWayne 42               559.080568 62.334   8902.56  0.601    0                        
c043             SantaAna_JohnWayne 62               273.924586 63.235   5802.416 0.555    0                        
c044             SantaAna_JohnWayne 282              295.530919 44.775   6072.84  4.982    0                        
c045             SantaAna_JohnWayne 108              144.704671 65.454   3956.576 0.936    0                        
c046             SantaAna_JohnWayne 230              193.182623 35.363   4705.552 3.588    0                        
c047             SantaAna_JohnWayne 45               70.007921 76.433   8445.633 0.547    0                        
c048             SantaAna_JohnWayne 92               220.394707 48.487   16806.011 0.747    0                        
c049             SantaAna_JohnWayne 105              74.709322 46.461   3991.592 9.366    0                        
c050             SantaAna_JohnWayne J278             174.208975 63.863   6633.818 1.433    0                        
c051             SantaAna_JohnWayne J275             158.061672 74.373   6257.735 1.043    0                        
c052             SantaAna_JohnWayne J276             179.424966 62.283   6752.288 1.564    0                        
c054             SantaAna_JohnWayne OF3              143.321592 36.223   5900.764 4.871    0                        
c055             SantaAna_JohnWayne 263              180.910761 60.84    4523.856 0.831    0                        
c056             SantaAna_JohnWayne 454              225.297571 75.384   5160.408 0.544    0                        
c057             SantaAna_JohnWayne 243              74.59898 73.898   2658.704 2.694    0                        
c058             SantaAna_JohnWayne 561              278.711941 70.833   2579.74  0.52     0                        
c059             SantaAna_JohnWayne 388              146.199491 74.052   3981.048 0.527    0                        
c060             SantaAna_JohnWayne 388              153.738663 79.083   4102.984 0.507    0                        
c061             SantaAna_JohnWayne J14              239.7625 37.524   8035.076 8.648    0                        
c062             SantaAna_JohnWayne J140             308.70385 36.362   9350.751 12.186   0                        
c063             SantaAna_JohnWayne J147             360.354433 50.666   10260.279 7.777    0                        
c064             SantaAna_JohnWayne 873              166.845304 56.29    6464.124 0.512    0                        
c065             SantaAna_JohnWayne 803              198.566214 61.795   7175.703 0.85     0                        
c066             SantaAna_JohnWayne 1274             117.816555 59.489   2623.101 0.592    0                        
c067             SantaAna_JohnWayne 1066             83.462728 59.088   2132.98  0.613    0                        
c069             SantaAna_JohnWayne 1272             152.981739 49.686   3068.139 0.645    0                        
c070             CIMIS_Irvine     1350             231.610996 47.722   3935.018 0.689    0                        
c071             SantaAna_JohnWayne 1140             196.243514 52       3562.612 0.984    0                        
c072             SantaAna_JohnWayne 919              145.14248 79.085   5945.631 0.862    0                        
c073             SantaAna_JohnWayne 1030             299.529245 55.7     4591.502 0.542    0                        
c074             SantaAna_JohnWayne 1177             166.247774 36.436   3225.112 0.424    0                        
c075             SantaAna_JohnWayne 1140             133.989288 31.636   2833.566 0.595    0                        
c076             SantaAna_JohnWayne 858              238.736215 72.705   8014.425 0.74     0                        
c077             SantaAna_JohnWayne 748              196.027262 78.463   7120.51  0.771    0                        
c078             SantaAna_JohnWayne 808              255.877469 57.017   8354.885 0.499    0                        
c079             SantaAna_JohnWayne 748              166.0373 42       6445.32  0.519    0                        
c080             SantaAna_JohnWayne 858              204.569385 55.397   7305.09  0.714    0                        
c081             CIMIS_Irvine     1370             134.457944 54.504   2839.508 0.776    0                        
c082             CIMIS_Irvine     1338             179.942418 50.061   3381.983 0.786    0                        
c083             CIMIS_Irvine     1595             126.115457 66.527   2732.45  1.517    0                        
c084             CIMIS_Irvine     1507             234.967244 56.203   3969.133 1.126    0                        
c085             CIMIS_Irvine     J199             153.3339 48.342   3072.374 1.513    0                        
c086             CIMIS_Irvine     1752             362.774752 52.099   5150.786 1.522    0                        
c088             CIMIS_Irvine     1917             134.835608 48.83    2844.291 1.751    0                        
c089             CIMIS_Irvine     1791             199.192808 47.878   3594.64  1.626    0                        
c090             CIMIS_Irvine     1911             83.835601 58.61    2138.692 1.623    0                        
c091             CIMIS_Irvine     1917             113.960709 67.167   2571.25  1.97     0                        
c092             CIMIS_Irvine     1867             261.54756 58.597   4232.74  1.545    0                        
c093             CIMIS_Irvine     1736             215.602619 55.567   3769.5   1.577    0                        
c094             SantaAna_JohnWayne J48              224.352513 60.924   3860.556 0.862    0                        
c095             SantaAna_JohnWayne 1035             151.682837 53.797   3052.482 1.122    0                        
c096             SantaAna_JohnWayne 1263             142.136023 69.433   2935.714 0.939    0                        
c097             SantaAna_JohnWayne 1093             266.004369 72.665   4275.87  0.905    0                        
c098             SantaAna_JohnWayne 1093             322.554103 54.358   4800.128 0.769    0                        
c099             SantaAna_JohnWayne 989              123.740476 62.004   2701.458 1.274    0                        
c100             SantaAna_JohnWayne J143             145.435528 44.182   5952.831 14.066   0                        
c101             SantaAna_JohnWayne J13              85.328087 45.072   4322.913 10.855   0                        
c103             CIMIS_Irvine     1651             166.331473 43.547   3226.086 0.655    0                        
c104             CIMIS_Irvine     J287             217.402985 48.818   7576.708 1.38     0                        
c105             CIMIS_Irvine     1835             108.158158 54.561   4983.757 1.545    0                        
c106             CIMIS_Irvine     1901             203.055383 48.45    7272.604 2.412    0                        
c107             CIMIS_Irvine     1953             178.230161 35.974   6725.274 2.132    0                        
c108             CIMIS_Irvine     J183             28.527594 60.031   1120.084 2.165    0                        
c109             CIMIS_Irvine     J38              144.574199 44.002   2965.826 1.542    0                        
c110             CIMIS_Irvine     1651             173.285904 41.751   3306.353 0.796    0                        
c111             CIMIS_Irvine     1729             229.009066 51.205   3908.434 1.138    0                        
c112             CIMIS_Irvine     1455             280.397866 46.118   4413.225 0.817    0                        
c113             SantaAna_JohnWayne J74              229.90443 53.434   7835.192 0.969    0                        
c114             CIMIS_Irvine     1622             308.783471 55.538   9352.198 1.004    0                        
c115             CIMIS_Irvine     1703             130.520598 56.618   5578.645 0.949    0                        
c116             CIMIS_Irvine     Woodbridge       143.300174 52.778   5900.235 1.102    0                        
c117             CIMIS_Irvine     2030             115.015451 52.324   5171.005 1.964    0                        
c118             CIMIS_Irvine     J266             385.719523 35.163   5343.85  5.033    0                        
c120             CIMIS_Irvine     J266             236.988304 62.023   3989.582 1.831    0                        
c121             CIMIS_Irvine     J175             74.54954 67.667   1993.234 18.327   0                        
c123_1           CIMIS_Irvine     J304             56.914596 35.035   1695.218 10.909   0                        
c123_2           CIMIS_Irvine     1729             78.618793 12.732   2057.818 1.95     0                        
c124             CIMIS_Irvine     1719             223.724541 34.22    7708.137 4.487    0                        
c125_1           CIMIS_Irvine     J79              27.294219 77.854   1090.771 1.125    0                        
c125_2           CIMIS_Irvine     1729             115.973307 49.522   2598.4   1.125    0                        
c126             CIMIS_Irvine     Trabuco          122.926303 42.034   2690.78  1.142    0                        
c127             CIMIS_Irvine     Trabuco          132.250547 57.37    2811.446 1.403    0                        
c128             CIMIS_Irvine     1868             243.292666 55.341   8105.852 1.566    0                        
c129             SantaAna_JohnWayne 919              132.450524 72.159   5627.992 1.813    0                        
c130             SantaAna_JohnWayne 591              181.803513 77.221   1996.383 1.968    0                        
c131             SantaAna_JohnWayne 787              212.452259 78.577   7472.71  0.801    0                        
c132             SantaAna_JohnWayne 713              146.917836 68.508   5989.16  0.223    0                        
c133             SantaAna_JohnWayne 725              182.359695 77.727   6818.34  0.256    0                        
c134             SantaAna_JohnWayne 621              295.4678 78.822   2671.706 1.093    0                        
c135             SantaAna_JohnWayne 735              239.488217 74.755   2355.338 0.234    0                        
c136             SantaAna_JohnWayne 618              335.600232 76.874   2883.872 0.346    0                        
c137             SantaAna_JohnWayne 662              218.227119 70.938   2227.553 0.447    0                        
c138             SantaAna_JohnWayne 594              294.818469 75.983   2668.182 0.304    0                        
c139             SantaAna_JohnWayne 497              132.682569 81.694   1652.613 0.508    0                        
c140             Villa_Park_Dam   782              170.739273 55.146   3277.112 0.574    0                        
c141             SantaAna_JohnWayne 869              218.075343 70.43    3795.38  0.316    0                        
c142             Villa_Park_Dam   965              184.059366 51.477   6856.4   0.845    0                        
c143             Villa_Park_Dam   1073             173.203474 63.38    6610.816 1.588    0                        
c144             SantaAna_JohnWayne 145              129.263875 51.109   5546.354 1.758    0                        
c145             Villa_Park_Dam   885              181.816305 49.458   6806.144 0.723    0                        
c146             Villa_Park_Dam   918              150.906541 55.74    6086.2   4.65     0                        
c147             Villa_Park_Dam   926              196.932852 51.213   7140.224 1.25     0                        
c148             Villa_Park_Dam   1011             231.213079 48.343   7861.92  1.4      0                        
c149             SantaAna_JohnWayne 702              326.186014 82.498   2835.058 1.693    0                        
c150             SantaAna_JohnWayne 665              125.960187 78.73    1601.853 1.555    0                        
c151             SantaAna_JohnWayne 668              262.722563 91.036   2489.896 1.124    0                        
c152             SantaAna_JohnWayne 675              99.644689 89.379   1391.731 0.644    0                        
c153             SantaAna_JohnWayne 675              166.105571 75.687   1891.094 0.644    0                        
c154             Villa_Park_Dam   885              131.465935 49.247   5602.848 0.904    0                        
c155             SantaAna_JohnWayne 192              115.595126 54.821   5186.626 0.824    0                        
c156             Villa_Park_Dam   1201             143.289606 63.438   5899.976 1.315    0                        
c157             SantaAna_JohnWayne 1123             344.632027 47.172   9989.29  1.036    0                        
c158             SantaAna_JohnWayne UCI_Marsh        389.784334 26.827   10755.135 1.366    0                        
c159             SantaAna_JohnWayne 630              135.690417 66.798   1674.99  1.15     0                        
c160             SantaAna_JohnWayne 564              124.730278 67.593   1592.45  3.414    0                        
c161             SantaAna_JohnWayne 610              134.3636 72.038   1665.143 0.138    0                        
c162             SantaAna_JohnWayne SJM_In           145.622568 18.069   5957.423 0.426    0                        
c163             SantaAna_JohnWayne 796              95.828504 68.352   4634.662 0.486    0                        
c164             SantaAna_JohnWayne J150             153.227269 59.923   6142.185 2.832    0                        
c166             SantaAna_JohnWayne 809              87.08911 55.86    4376.225 1.951    0                        
c167             SantaAna_JohnWayne 868              141.894147 31.682   5865.43  4.041    0                        
c168             SantaAna_JohnWayne 934              172.409804 46.345   6592.625 2.77     0                        
c169             SantaAna_JohnWayne 1043             261.375891 50.262   8462.145 1.409    0                        
c170             CIMIS_Irvine     1399             278.016646 50.724   8781.4   1.792    0                        
c171             SantaAna_JohnWayne 1021             236.608616 48.662   39857.46 1.322    0                        
c172             SantaAna_JohnWayne 877              261.114148 46.862   42285.31 1.184    0                        
c173             CIMIS_Irvine     1662             243.091701 46.28    8101.832 0.746    0                        
c174             CIMIS_Irvine     J137             186.522634 56.166   3455.654 0.836    0                        
c175             CIMIS_Irvine     J11              244.894433 46.038   4068.915 1.65     0                        
c176             CIMIS_Irvine     1386             104.328665 68.397   4877.12  2.313    0                        
c177             CIMIS_Irvine     1759             161.283815 57.579   3166.983 1.813    0                        
c178             CIMIS_Irvine     1654             212.5089 55.703   3736.952 1.216    0                        
c179             CIMIS_Irvine     1803             119.694762 45.665   2648.112 1.555    0                        
c180             CIMIS_Irvine     1959             211.277811 57.175   3723.948 1.375    0                        
c181             CIMIS_Irvine     1965             81.317756 42.071   2099.918 31.498   0                        
c182             Villa_Park_Dam   1293             361.990645 53.538   10288.208 1.729    0                        
c183             SantaAna_JohnWayne 1103             289.288862 59.278   8993.328 2.526    0                        
c184_1           CIMIS_Irvine     J314             8.36539  10.595   1073.033 2.687    0                        
c184_10          CIMIS_Irvine     2030             10.485681 20.326   1228.794 1.954    0                        
c184_12          CIMIS_Irvine     1993             71.581943 35.901   3890.481 1.979    0                        
c184_4           CIMIS_Irvine     2030             23.871043 43.163   2013.001 7.144    0                        
c184_6           CIMIS_Irvine     1989             7.539028 61.147   1008.116 1.357    0                        
c185_1           CIMIS_Irvine     1985             776.221992 34.985   16259.711 2.435    0                        
c186             CIMIS_Irvine     1953             220.895902 23.639   7649.514 2.276    0                        
c187             CIMIS_Irvine     1188             237.958171 66.587   7998.736 0.766    0                        
c189             CIMIS_Irvine     1868             165.816754 70.019   6440.184 1.819    0                        
c190             SantaAna_JohnWayne 919              253.080026 53.063   8299.96  0.757    0                        
c191             SantaAna_JohnWayne 799              97.219363 61.479   4674.906 1.712    0                        
c192             SantaAna_JohnWayne 1306             89.649428 61.37    2226.485 0.862    0                        
c193             CIMIS_Irvine     1828             158.890849 54.017   3138.706 1.058    0                        
c194             CIMIS_Irvine     2035             174.164866 27.202   3316.405 0.963    0                        
c195             Villa_Park_Dam   1034             109.940433 53.147   5032.872 0.711    0                        
c196             Villa_Park_Dam   906              111.848924 57.967   5085.112 2.251    0                        
c197             Villa_Park_Dam   817              255.38027 65.272   4172.57  1.465    0                        
c198             SantaAna_JohnWayne J193             215.94615 79.045   5030.8   1.244    0                        
c200             Villa_Park_Dam   506              293.115904 70.464   6043.016 0.934    0                        
c201             SantaAna_JohnWayne 312              141.531662 63.969   3904.288 0.671    0                        
c202             SantaAna_JohnWayne 312              233.831723 65.635   5276.816 1.146    0                        
c203             SantaAna_JohnWayne 404              263.623361 61.794   5670.488 0.671    0                        
c204             SantaAna_JohnWayne 404              99.699555 59.116   3164.064 0.741    0                        
c205             SantaAna_JohnWayne 506              131.367603 76.796   3733.56  0.788    0                        
c206             SantaAna_JohnWayne 538              161.11496 61.677   4219.992 0.688    0                        
c207             SantaAna_JohnWayne 560              239.528325 60.387   5353.584 0.768    0                        
c208             SantaAna_JohnWayne J88              257.753236 72.372   5594.384 0.727    0                        
c209             SantaAna_JohnWayne 342              334.910301 69.666   6546.168 0.758    0                        
c211             SantaAna_JohnWayne 223              293.552442 61.621   6048.416 0.1      0                        
c212             SantaAna_JohnWayne 363              451.064913 59.583   7826.608 0.349    0                        
c213             SantaAna_JohnWayne 490              261.984149 80.756   5649.304 0.357    0                        
c214             SantaAna_JohnWayne 241              260.297194 56.137   5627.456 0.402    0                        
c216             SantaAna_JohnWayne 380              174.92955 70.299   4433.512 0.482    0                        
c217             SantaAna_JohnWayne 199              107.281614 61.73    3306.32  0.454    0                        
c219             SantaAna_JohnWayne 679              179.583828 80.328   3377.938 0.438    0                        
c220             Villa_Park_Dam   629              554.53835 52.884   6644.315 0.837    0                        
c221             Villa_Park_Dam   J24              262.862005 64.224   4245.491 0.696    0                        
c222             SantaAna_JohnWayne 913              297.402111 62.885   4571.91  0.806    0                        
c223             SantaAna_JohnWayne 738              342.996324 73.915   4980.408 2.214    0                        
c224             SantaAna_JohnWayne 768              308.200155 63.081   4670.797 1.179    0                        
c225             SantaAna_JohnWayne 646              97.997252 68.232   2348.657 1.377    0                        
c226             Villa_Park_Dam   646              177.439469 62.444   3353.678 1.592    0                        
c227             SantaAna_JohnWayne 333              163.322213 56.805   4254.584 1.317    0                        
c228             SantaAna_JohnWayne 384              392.151864 62.21    7196.192 0.971    0                        
c229             SantaAna_JohnWayne J43              264.008567 58.838   5675.456 0.594    0                        
c230             SantaAna_JohnWayne J43              178.935646 58.951   4494.16  0.621    0                        
c231             SantaAna_JohnWayne 398              228.164419 53.092   5199.704 0.581    0                        
c234             Villa_Park_Dam   1603             123.912293 34.296   5407.416 0.74     0                        
c235             Villa_Park_Dam   1458             54.140867 59.004   3290.304 0.747    0                        
c237             Villa_Park_Dam   1216             190.503245 50.822   6999.432 28.125   0                        
c238             Villa_Park_Dam   1537             342.203532 29.594   9946.992 5.064    0                        
c239             Villa_Park_Dam   1606             367.864452 26.933   10388.048 8.641    0                        
c240             Villa_Park_Dam   J47              363.768363 12.918   5159.246 19.248   0                        
c241             Villa_Park_Dam   1593             249.838895 38.71    8236.016 32.577   0                        
c242             Villa_Park_Dam   1748             97.146867 17.815   4672.816 25.635   0                        